*** ChampSim Multicore Out-of-Order Simulator ***

Warmup Instructions: 10000000
Simulation Instructions: 50000000
Number of CPUs: 1
LLC sets: 2048
LLC ways: 16
Off-chip DRAM Size: 4096 MB Channels: 1 Width: 256-bit Data Rate: 1600 MT/s

CPU 0 runs traces/429.mcf-51B.champsimtrace.xz
Heartbeat CPU 0 instructions: 10000000 cycles: 5561122 heartbeat IPC: 1.7982 cumulative IPC: 1.7982 (Simulation time: 0 hr 0 min 17 sec) 

Warmup complete CPU 0 instructions: 10000004 cycles: 5561123 (Simulation time: 0 hr 0 min 17 sec) 

Heartbeat CPU 0 instructions: 20000000 cycles: 68735580 heartbeat IPC: 0.158292 cumulative IPC: 0.158292 (Simulation time: 0 hr 0 min 48 sec) 
Heartbeat CPU 0 instructions: 30000001 cycles: 142646296 heartbeat IPC: 0.135298 cumulative IPC: 0.145895 (Simulation time: 0 hr 1 min 22 sec) 
Heartbeat CPU 0 instructions: 40000000 cycles: 204982983 heartbeat IPC: 0.160419 cumulative IPC: 0.150435 (Simulation time: 0 hr 1 min 53 sec) 
Heartbeat CPU 0 instructions: 50000000 cycles: 284385072 heartbeat IPC: 0.125941 cumulative IPC: 0.14346 (Simulation time: 0 hr 2 min 27 sec) 
Heartbeat CPU 0 instructions: 60000000 cycles: 350119148 heartbeat IPC: 0.152128 cumulative IPC: 0.145113 (Simulation time: 0 hr 2 min 57 sec) 
Finished CPU 0 instructions: 50000000 cycles: 344558051 cumulative IPC: 0.145113 (Simulation time: 0 hr 2 min 57 sec) 

CPU 0 Branch Prediction Accuracy: 94.5071% MPKI: 13.1013

ChampSim completed all CPUs

Region of Interest Statistics

CPU 0 cumulative IPC: 0.145113 instructions: 50000000 cycles: 344558051
L1D TOTAL     ACCESS:   13784915  HIT:    9051516  MISS:    4733399
L1D LOAD      ACCESS:   11335649  HIT:    6722771  MISS:    4612878
L1D RFO       ACCESS:    2449266  HIT:    2328745  MISS:     120521
L1D PREFETCH  ACCESS:          0  HIT:          0  MISS:          0
L1D WRITEBACK ACCESS:          0  HIT:          0  MISS:          0
L1D PREFETCH  REQUESTED:          0  ISSUED:          0  USEFUL:          0  USELESS:          0
L1I TOTAL     ACCESS:   12504245  HIT:   12504245  MISS:          0
L1I LOAD      ACCESS:   12504245  HIT:   12504245  MISS:          0
L1I RFO       ACCESS:          0  HIT:          0  MISS:          0
L1I PREFETCH  ACCESS:          0  HIT:          0  MISS:          0
L1I WRITEBACK ACCESS:          0  HIT:          0  MISS:          0
L1I PREFETCH  REQUESTED:          0  ISSUED:          0  USEFUL:          0  USELESS:          0
LLC TOTAL     ACCESS:   11260141  HIT:    7456258  MISS:    3803883
LLC LOAD      ACCESS:    4612792  HIT:    2426377  MISS:    2186415
LLC RFO       ACCESS:     120518  HIT:      60258  MISS:      60260
LLC PREFETCH  ACCESS:    5495810  HIT:    3938602  MISS:    1557208
LLC WRITEBACK ACCESS:    1031021  HIT:    1031021  MISS:          0
LLC PREFETCH  REQUESTED:    8978095  ISSUED:    8251675  USEFUL:     652150  USELESS:    1189081
Major fault: 0 Minor fault: 36182

DRAM Statistics
 CHANNEL 0
 RQ ROW_BUFFER_HIT:          0  ROW_BUFFER_MISS:          0
 DBUS_CONGESTED:          0
 WQ ROW_BUFFER_HIT:          0  ROW_BUFFER_MISS:          0  FULL:          0


------------------------------------

=== CPU 0 Total Stats ===
* CPU 0 Total Accesses: 4612792
* CPU 0 Total Misses: 2186415
* CPU 0 Total Prefetches: 1557208
* CPU 0 Total Prefetch Hits: 598926
* CPU 0 Total Non-useful Prefetches: 954288
* CPU 0 Total Undecided Prefetches: 3994
* CPU 0 Total PC+Address Prefetches: 27296
* CPU 0 Total PC+Offset Prefetches: 1529912
* CPU 0 Total PC+Address Covered Misses: 14950
* CPU 0 Total PC+Offset Covered Misses: 583976
* CPU 0 Total PC+Address Overpredictions: 35070
* CPU 0 Total PC+Offset Overpredictions: 919218

=== CPU 0 ROI Stats ===
* CPU 0 ROI Accesses: 4612792
* CPU 0 ROI Misses: 2186415
* CPU 0 ROI Prefetches: 1557208
* CPU 0 ROI Prefetch Hits: 598926
* CPU 0 ROI Non-useful Prefetches: 954288
* CPU 0 ROI Undecided Prefetches: 3994
* CPU 0 ROI PC+Address Prefetches: 27296
* CPU 0 ROI PC+Offset Prefetches: 1529912
* CPU 0 ROI PC+Address Covered Misses: 14950
* CPU 0 ROI PC+Offset Covered Misses: 583976
* CPU 0 ROI PC+Address Overpredictions: 35070
* CPU 0 ROI PC+Offset Overpredictions: 919218

