
*** ChampSim Multicore Out-of-Order Simulator ***

Warmup Instructions: 10000000
Simulation Instructions: 50000000
Number of CPUs: 1
LLC sets: 2048
LLC ways: 16
Off-chip DRAM Size: 4096 MB Channels: 1 Width: 256-bit Data Rate: 1600 MT/s

CPU 0 runs traces/403.gcc-16B.champsimtrace.xz
Heartbeat CPU 0 instructions: 10000001 cycles: 8173491 heartbeat IPC: 1.22347 cumulative IPC: 1.22347 (Simulation time: 0 hr 0 min 15 sec) 

Warmup complete CPU 0 instructions: 10000001 cycles: 8173491 (Simulation time: 0 hr 0 min 15 sec) 

Heartbeat CPU 0 instructions: 20000000 cycles: 17424313 heartbeat IPC: 1.08098 cumulative IPC: 1.08098 (Simulation time: 0 hr 0 min 32 sec) 
Heartbeat CPU 0 instructions: 30000003 cycles: 26663044 heartbeat IPC: 1.0824 cumulative IPC: 1.08169 (Simulation time: 0 hr 0 min 48 sec) 
Heartbeat CPU 0 instructions: 40000000 cycles: 36005085 heartbeat IPC: 1.07043 cumulative IPC: 1.07791 (Simulation time: 0 hr 1 min 5 sec) 
Heartbeat CPU 0 instructions: 50000000 cycles: 45625979 heartbeat IPC: 1.0394 cumulative IPC: 1.06802 (Simulation time: 0 hr 1 min 23 sec) 
Heartbeat CPU 0 instructions: 60000000 cycles: 54809558 heartbeat IPC: 1.0889 cumulative IPC: 1.07213 (Simulation time: 0 hr 1 min 40 sec) 
Finished CPU 0 instructions: 50000002 cycles: 46636076 cumulative IPC: 1.07213 (Simulation time: 0 hr 1 min 40 sec) 

CPU 0 Branch Prediction Accuracy: 99.8635% MPKI: 0.26592

ChampSim completed all CPUs

Region of Interest Statistics

CPU 0 cumulative IPC: 1.07213 instructions: 50000002 cycles: 46636076
L1D TOTAL     ACCESS:    8658389  HIT:    6156348  MISS:    2502041
L1D LOAD      ACCESS:     409700  HIT:     379599  MISS:      30101
L1D RFO       ACCESS:    8248689  HIT:    5776749  MISS:    2471940
L1D PREFETCH  ACCESS:          0  HIT:          0  MISS:          0
L1D WRITEBACK ACCESS:          0  HIT:          0  MISS:          0
L1D PREFETCH  REQUESTED:          0  ISSUED:          0  USEFUL:          0  USELESS:          0
L1I TOTAL     ACCESS:   16990187  HIT:   16990173  MISS:         14
L1I LOAD      ACCESS:   16990187  HIT:   16990173  MISS:         14
L1I RFO       ACCESS:          0  HIT:          0  MISS:          0
L1I PREFETCH  ACCESS:          0  HIT:          0  MISS:          0
L1I WRITEBACK ACCESS:          0  HIT:          0  MISS:          0
L1I PREFETCH  REQUESTED:          0  ISSUED:          0  USEFUL:          0  USELESS:          0
LLC TOTAL     ACCESS:    4982488  HIT:    4976025  MISS:       6463
LLC LOAD      ACCESS:      30115  HIT:      24168  MISS:       5947
LLC RFO       ACCESS:    2471940  HIT:    2471452  MISS:        488
LLC PREFETCH  ACCESS:        142  HIT:        114  MISS:         28
LLC WRITEBACK ACCESS:    2480291  HIT:    2480291  MISS:          0
LLC PREFETCH  REQUESTED:        143  ISSUED:        143  USEFUL:          7  USELESS:          0
Major fault: 0 Minor fault: 960

DRAM Statistics
 CHANNEL 0
 RQ ROW_BUFFER_HIT:          0  ROW_BUFFER_MISS:          0
 DBUS_CONGESTED:          0
 WQ ROW_BUFFER_HIT:          0  ROW_BUFFER_MISS:          0  FULL:          0


------------------------------------

=== CPU 0 Total Stats ===
* CPU 0 Total Accesses: 30115
* CPU 0 Total Misses: 5947
* CPU 0 Total Prefetches: 28
* CPU 0 Total Prefetch Hits: 7
* CPU 0 Total Non-useful Prefetches: 0
* CPU 0 Total Undecided Prefetches: 21
* CPU 0 Total PC+Address Prefetches: 28
* CPU 0 Total PC+Offset Prefetches: 0
* CPU 0 Total PC+Address Covered Misses: 7
* CPU 0 Total PC+Offset Covered Misses: 0
* CPU 0 ROI Accum Table No Prefetches: 29643

=== CPU 0 ROI Stats ===
* CPU 0 ROI Accesses: 30115
* CPU 0 ROI Misses: 5947
* CPU 0 ROI Prefetches: 28
* CPU 0 ROI Prefetch Hits: 7
* CPU 0 ROI Non-useful Prefetches: 0
* CPU 0 ROI Undecided Prefetches: 21
* CPU 0 ROI PC+Address Prefetches: 28
* CPU 0 ROI PC+Offset Prefetches: 0
* CPU 0 ROI PC+Address Covered Misses: 7
* CPU 0 ROI PC+Offset Covered Misses: 0
* CPU 0 ROI PC+Address Overpredictions: 0
* CPU 0 ROI PC+Offset Overpredictions: 0
* CPU 0 ROI Accum Table No Prefetches: 29643

