
*** ChampSim Multicore Out-of-Order Simulator ***

Warmup Instructions: 10000000
Simulation Instructions: 50000000
Number of CPUs: 1
LLC sets: 2048
LLC ways: 16
Off-chip DRAM Size: 4096 MB Channels: 1 Width: 256-bit Data Rate: 1600 MT/s

CPU 0 runs traces/403.gcc-16B.champsimtrace.xz
Heartbeat CPU 0 instructions: 10000001 cycles: 8173490 heartbeat IPC: 1.22347 cumulative IPC: 1.22347 (Simulation time: 0 hr 0 min 12 sec) 

Warmup complete CPU 0 instructions: 10000001 cycles: 8173490 (Simulation time: 0 hr 0 min 12 sec) 

Heartbeat CPU 0 instructions: 20000000 cycles: 17397607 heartbeat IPC: 1.08411 cumulative IPC: 1.08411 (Simulation time: 0 hr 0 min 26 sec) 
Heartbeat CPU 0 instructions: 30000003 cycles: 26597223 heartbeat IPC: 1.087 cumulative IPC: 1.08556 (Simulation time: 0 hr 0 min 40 sec) 
Heartbeat CPU 0 instructions: 40000000 cycles: 35888292 heartbeat IPC: 1.0763 cumulative IPC: 1.08245 (Simulation time: 0 hr 0 min 54 sec) 
Heartbeat CPU 0 instructions: 50000000 cycles: 45407116 heartbeat IPC: 1.05055 cumulative IPC: 1.0743 (Simulation time: 0 hr 1 min 8 sec) 
Heartbeat CPU 0 instructions: 60000000 cycles: 54527126 heartbeat IPC: 1.09649 cumulative IPC: 1.07866 (Simulation time: 0 hr 1 min 22 sec) 
Finished CPU 0 instructions: 50000002 cycles: 46353645 cumulative IPC: 1.07866 (Simulation time: 0 hr 1 min 22 sec) 

CPU 0 Branch Prediction Accuracy: 99.8635% MPKI: 0.26592

ChampSim completed all CPUs

Region of Interest Statistics

CPU 0 cumulative IPC: 1.07866 instructions: 50000002 cycles: 46353645
L1D TOTAL     ACCESS:    8659539  HIT:    6157498  MISS:    2502041
L1D LOAD      ACCESS:     410359  HIT:     380258  MISS:      30101
L1D RFO       ACCESS:    8249180  HIT:    5777240  MISS:    2471940
L1D PREFETCH  ACCESS:          0  HIT:          0  MISS:          0
L1D WRITEBACK ACCESS:          0  HIT:          0  MISS:          0
L1D PREFETCH  REQUESTED:          0  ISSUED:          0  USEFUL:          0  USELESS:          0
L1I TOTAL     ACCESS:   16990964  HIT:   16990950  MISS:         14
L1I LOAD      ACCESS:   16990964  HIT:   16990950  MISS:         14
L1I RFO       ACCESS:          0  HIT:          0  MISS:          0
L1I PREFETCH  ACCESS:          0  HIT:          0  MISS:          0
L1I WRITEBACK ACCESS:          0  HIT:          0  MISS:          0
L1I PREFETCH  REQUESTED:          0  ISSUED:          0  USEFUL:          0  USELESS:          0
LLC TOTAL     ACCESS:    4987103  HIT:    4978067  MISS:       9036
LLC LOAD      ACCESS:      30115  HIT:      25727  MISS:       4388
LLC RFO       ACCESS:    2471940  HIT:    2471488  MISS:        452
LLC PREFETCH  ACCESS:       4757  HIT:        561  MISS:       4196
LLC WRITEBACK ACCESS:    2480291  HIT:    2480291  MISS:          0
LLC PREFETCH  REQUESTED:       6499  ISSUED:       5506  USEFUL:       1652  USELESS:          0
Major fault: 0 Minor fault: 960

DRAM Statistics
 CHANNEL 0
 RQ ROW_BUFFER_HIT:          0  ROW_BUFFER_MISS:          0
 DBUS_CONGESTED:          0
 WQ ROW_BUFFER_HIT:          0  ROW_BUFFER_MISS:          0  FULL:          0


------------------------------------

=== CPU 0 Total Stats ===
* CPU 0 Total Accesses: 30115
* CPU 0 Total Misses: 4388
* CPU 0 Total Prefetches: 4196
* CPU 0 Total Prefetch Hits: 1553
* CPU 0 Total Non-useful Prefetches: 0
* CPU 0 Total Undecided Prefetches: 2643
* CPU 0 Total PC+Address Prefetches: 0
* CPU 0 Total PC+Offset Prefetches: 4196
* CPU 0 Total PC+Address Covered Misses: 9
* CPU 0 Total PC+Offset Covered Misses: 1544
* CPU 0 Total PC+Address Overpredictions: 0
* CPU 0 Total PC+Offset Overpredictions: 0

=== CPU 0 ROI Stats ===
* CPU 0 ROI Accesses: 30115
* CPU 0 ROI Misses: 4388
* CPU 0 ROI Prefetches: 4196
* CPU 0 ROI Prefetch Hits: 1553
* CPU 0 ROI Non-useful Prefetches: 0
* CPU 0 ROI Undecided Prefetches: 2643
* CPU 0 ROI PC+Address Prefetches: 0
* CPU 0 ROI PC+Offset Prefetches: 4196
* CPU 0 ROI PC+Address Covered Misses: 9
* CPU 0 ROI PC+Offset Covered Misses: 1544
* CPU 0 ROI PC+Address Overpredictions: 0
* CPU 0 ROI PC+Offset Overpredictions: 0

