
*** ChampSim Multicore Out-of-Order Simulator ***

Warmup Instructions: 10000000
Simulation Instructions: 50000000
Number of CPUs: 1
LLC sets: 2048
LLC ways: 16
Off-chip DRAM Size: 4096 MB Channels: 1 Width: 256-bit Data Rate: 1600 MT/s

CPU 0 runs traces/429.mcf-51B.champsimtrace.xz
Heartbeat CPU 0 instructions: 10000000 cycles: 5565383 heartbeat IPC: 1.79682 cumulative IPC: 1.79682 (Simulation time: 0 hr 0 min 14 sec) 

Warmup complete CPU 0 instructions: 10000004 cycles: 5565384 (Simulation time: 0 hr 0 min 14 sec) 

Heartbeat CPU 0 instructions: 20000000 cycles: 72706430 heartbeat IPC: 0.14894 cumulative IPC: 0.14894 (Simulation time: 0 hr 0 min 40 sec) 
Heartbeat CPU 0 instructions: 30000000 cycles: 152395978 heartbeat IPC: 0.125487 cumulative IPC: 0.136211 (Simulation time: 0 hr 1 min 10 sec) 
