
*** ChampSim Multicore Out-of-Order Simulator ***

Warmup Instructions: 1000000
Simulation Instructions: 10000000
Number of CPUs: 1
LLC sets: 2048
LLC ways: 16
Off-chip DRAM Size: 4096 MB Channels: 1 Width: 256-bit Data Rate: 1600 MT/s

CPU 0 runs traces/403.gcc-16B.champsimtrace.xz

Warmup complete CPU 0 instructions: 1000001 cycles: 848147 (Simulation time: 0 hr 0 min 1 sec) 

Heartbeat CPU 0 instructions: 10000001 cycles: 9538413 heartbeat IPC: 1.04839 cumulative IPC: 1.03564 (Simulation time: 0 hr 0 min 13 sec) 
Finished CPU 0 instructions: 10000000 cycles: 9555870 cumulative IPC: 1.04648 (Simulation time: 0 hr 0 min 15 sec) 

CPU 0 Branch Prediction Accuracy: 99.7408% MPKI: 0.5047

ChampSim completed all CPUs

Region of Interest Statistics

CPU 0 cumulative IPC: 1.04648 instructions: 10000000 cycles: 9555870
L1D TOTAL     ACCESS:    1753950  HIT:    1260013  MISS:     493937
L1D LOAD      ACCESS:     104867  HIT:      98270  MISS:       6597
L1D RFO       ACCESS:    1649083  HIT:    1161743  MISS:     487340
L1D PREFETCH  ACCESS:          0  HIT:          0  MISS:          0
L1D WRITEBACK ACCESS:          0  HIT:          0  MISS:          0
L1D PREFETCH  REQUESTED:          0  ISSUED:          0  USEFUL:          0  USELESS:          0
L1I TOTAL     ACCESS:    3377426  HIT:    3377283  MISS:        143
L1I LOAD      ACCESS:    3377426  HIT:    3377283  MISS:        143
L1I RFO       ACCESS:          0  HIT:          0  MISS:          0
L1I PREFETCH  ACCESS:          0  HIT:          0  MISS:          0
L1I WRITEBACK ACCESS:          0  HIT:          0  MISS:          0
L1I PREFETCH  REQUESTED:          0  ISSUED:          0  USEFUL:          0  USELESS:          0
LLC TOTAL     ACCESS:     983339  HIT:     981232  MISS:       2107
LLC LOAD      ACCESS:       6740  HIT:       5003  MISS:       1737
LLC RFO       ACCESS:     487340  HIT:     487149  MISS:        191
LLC PREFETCH  ACCESS:        193  HIT:         14  MISS:        179
LLC WRITEBACK ACCESS:     489066  HIT:     489066  MISS:          0
LLC PREFETCH  REQUESTED:        244  ISSUED:        222  USEFUL:         55  USELESS:          0
Major fault: 0 Minor fault: 475

DRAM Statistics
 CHANNEL 0
 RQ ROW_BUFFER_HIT:          0  ROW_BUFFER_MISS:          0
 DBUS_CONGESTED:          0
 WQ ROW_BUFFER_HIT:          0  ROW_BUFFER_MISS:          0  FULL:          0


------------------------------------

=== CPU 0 Total Stats ===
* CPU 0 Total Accesses: 6740
* CPU 0 Total Misses: 1737
* CPU 0 Total Prefetches: 179
* CPU 0 Total Prefetch Hits: 54
* CPU 0 Total Non-useful Prefetches: 0
* CPU 0 Total Undecided Prefetches: 125
* CPU 0 Total PC+Address Prefetches: 0
* CPU 0 Total PC+Offset Prefetches: 179
* CPU 0 Total PC+Address Covered Misses: 0
* CPU 0 Total PC+Offset Covered Misses: 54
* CPU 0 Total PC+Address Overpredictions: 0
* CPU 0 Total PC+Offset Overpredictions: 0

=== CPU 0 ROI Stats ===
* CPU 0 ROI Accesses: 6740
* CPU 0 ROI Misses: 1737
* CPU 0 ROI Prefetches: 179
* CPU 0 ROI Prefetch Hits: 54
* CPU 0 ROI Non-useful Prefetches: 0
* CPU 0 ROI Undecided Prefetches: 125
* CPU 0 ROI PC+Address Prefetches: 0
* CPU 0 ROI PC+Offset Prefetches: 179
* CPU 0 ROI PC+Address Covered Misses: 0
* CPU 0 ROI PC+Offset Covered Misses: 54
* CPU 0 ROI PC+Address Overpredictions: 0
* CPU 0 ROI PC+Offset Overpredictions: 0

