
*** ChampSim Multicore Out-of-Order Simulator ***

Warmup Instructions: 10000000
Simulation Instructions: 50000000
Number of CPUs: 1
LLC sets: 2048
LLC ways: 16
Off-chip DRAM Size: 4096 MB Channels: 1 Width: 256-bit Data Rate: 1600 MT/s

xz: traces/.champsimtrace.xz: No such file or directory
CPU 0 runs traces/.champsimtrace.xz
*** Reached end of trace for Core: 0 Repeating trace: traces/.champsimtrace.xz
xz: traces/.champsimtrace.xz: No such file or directory
*** Reached end of trace for Core: 0 Repeating trace: traces/.champsimtrace.xz
xz: traces/.champsimtrace.xz: No such file or directory
*** Reached end of trace for Core: 0 Repeating trace: traces/.champsimtrace.xz
xz: traces/.champsimtrace.xz: No such file or directory
*** Reached end of trace for Core: 0 Repeating trace: traces/.champsimtrace.xz
xz: traces/.champsimtrace.xz: No such file or directory
*** Reached end of trace for Core: 0 Repeating trace: traces/.champsimtrace.xz
xz: traces/.champsimtrace.xz: No such file or directory
*** Reached end of trace for Core: 0 Repeating trace: traces/.champsimtrace.xz
xz: traces/.champsimtrace.xz: No such file or directory
*** Reached end of trace for Core: 0 Repeating trace: traces/.champsimtrace.xz
xz: traces/.champsimtrace.xz: No such file or directory
*** Reached end of trace for Core: 0 Repeating trace: traces/.champsimtrace.xz
xz: traces/.champsimtrace.xz: No such file or directory
*** Reached end of trace for Core: 0 Repeating trace: traces/.champsimtrace.xz
xz: traces/.champsimtrace.xz: No such file or directory
*** Reached end of trace for Core: 0 Repeating trace: traces/.champsimtrace.xz
xz: traces/.champsimtrace.xz: No such file or directory
*** Reached end of trace for Core: 0 Repeating trace: traces/.champsimtrace.xz
xz: traces/.champsimtrace.xz: No such file or directory
*** Reached end of trace for Core: 0 Repeating trace: traces/.champsimtrace.xz
xz: traces/.champsimtrace.xz: No such file or directory
*** Reached end of trace for Core: 0 Repeating trace: traces/.champsimtrace.xz
xz: traces/.champsimtrace.xz: No such file or directory
*** Reached end of trace for Core: 0 Repeating trace: traces/.champsimtrace.xz
xz: traces/.champsimtrace.xz: No such file or directory
*** Reached end of trace for Core: 0 Repeating trace: traces/.champsimtrace.xz
xz: traces/.champsimtrace.xz: No such file or directory
*** Reached end of trace for Core: 0 Repeating trace: traces/.champsimtrace.xz
xz: traces/.champsimtrace.xz: No such file or directory
*** Reached end of trace for Core: 0 Repeating trace: traces/.champsimtrace.xz
xz: traces/.champsimtrace.xz: No such file or directory
*** Reached end of trace for Core: 0 Repeating trace: traces/.champsimtrace.xz
xz: traces/.champsimtrace.xz: No such file or directory
*** Reached end of trace for Core: 0 Repeating trace: traces/.champsimtrace.xz
xz: traces/.champsimtrace.xz: No such file or directory
*** Reached end of trace for Core: 0 Repeating trace: traces/.champsimtrace.xz
xz: traces/.champsimtrace.xz: No such file or directory
*** Reached end of trace for Core: 0 Repeating trace: traces/.champsimtrace.xz
xz: traces/.champsimtrace.xz: No such file or directory
*** Reached end of trace for Core: 0 Repeating trace: traces/.champsimtrace.xz
xz: traces/.champsimtrace.xz: No such file or directory
*** Reached end of trace for Core: 0 Repeating trace: traces/.champsimtrace.xz
xz: traces/.champsimtrace.xz: No such file or directory
*** Reached end of trace for Core: 0 Repeating trace: traces/.champsimtrace.xz
xz: traces/.champsimtrace.xz: No such file or directory
*** Reached end of trace for Core: 0 Repeating trace: traces/.champsimtrace.xz
xz: traces/.champsimtrace.xz: No such file or directory
*** Reached end of trace for Core: 0 Repeating trace: traces/.champsimtrace.xz
xz: traces/.champsimtrace.xz: No such file or directory
*** Reached end of trace for Core: 0 Repeating trace: traces/.champsimtrace.xz
xz: traces/.champsimtrace.xz: No such file or directory
*** Reached end of trace for Core: 0 Repeating trace: traces/.champsimtrace.xz
xz: traces/.champsimtrace.xz: No such file or directory
*** Reached end of trace for Core: 0 Repeating trace: traces/.champsimtrace.xz
xz: traces/.champsimtrace.xz: No such file or directory
*** Reached end of trace for Core: 0 Repeating trace: traces/.champsimtrace.xz
xz: traces/.champsimtrace.xz: No such file or directory
*** Reached end of trace for Core: 0 Repeating trace: traces/.champsimtrace.xz
xz: traces/.champsimtrace.xz: No such file or directory
*** Reached end of trace for Core: 0 Repeating trace: traces/.champsimtrace.xz
xz: traces/.champsimtrace.xz: No such file or directory
*** Reached end of trace for Core: 0 Repeating trace: traces/.champsimtrace.xz
xz: traces/.champsimtrace.xz: No such file or directory
*** Reached end of trace for Core: 0 Repeating trace: traces/.champsimtrace.xz
xz: traces/.champsimtrace.xz: No such file or directory
*** Reached end of trace for Core: 0 Repeating trace: traces/.champsimtrace.xz
xz: traces/.champsimtrace.xz: No such file or directory
*** Reached end of trace for Core: 0 Repeating trace: traces/.champsimtrace.xz
xz: traces/.champsimtrace.xz: No such file or directory
*** Reached end of trace for Core: 0 Repeating trace: traces/.champsimtrace.xz
xz: traces/.champsimtrace.xz: No such file or directory
*** Reached end of trace for Core: 0 Repeating trace: traces/.champsimtrace.xz
xz: traces/.champsimtrace.xz: No such file or directory
*** Reached end of trace for Core: 0 Repeating trace: traces/.champsimtrace.xz
xz: traces/.champsimtrace.xz: No such file or directory
*** Reached end of trace for Core: 0 Repeating trace: traces/.champsimtrace.xz
xz: traces/.champsimtrace.xz: No such file or directory
*** Reached end of trace for Core: 0 Repeating trace: traces/.champsimtrace.xz
xz: traces/.champsimtrace.xz: No such file or directory
*** Reached end of trace for Core: 0 Repeating trace: traces/.champsimtrace.xz
xz: traces/.champsimtrace.xz: No such file or directory
*** Reached end of trace for Core: 0 Repeating trace: traces/.champsimtrace.xz
xz: traces/.champsimtrace.xz: No such file or directory
*** Reached end of trace for Core: 0 Repeating trace: traces/.champsimtrace.xz
xz: traces/.champsimtrace.xz: No such file or directory
*** Reached end of trace for Core: 0 Repeating trace: traces/.champsimtrace.xz
xz: traces/.champsimtrace.xz: No such file or directory
*** Reached end of trace for Core: 0 Repeating trace: traces/.champsimtrace.xz
xz: traces/.champsimtrace.xz: No such file or directory
*** Reached end of trace for Core: 0 Repeating trace: traces/.champsimtrace.xz
xz: traces/.champsimtrace.xz: No such file or directory
*** Reached end of trace for Core: 0 Repeating trace: traces/.champsimtrace.xz
xz: traces/.champsimtrace.xz: No such file or directory
*** Reached end of trace for Core: 0 Repeating trace: traces/.champsimtrace.xz
xz: traces/.champsimtrace.xz: No such file or directory
*** Reached end of trace for Core: 0 Repeating trace: traces/.champsimtrace.xz
xz: traces/.champsimtrace.xz: No such file or directory
*** Reached end of trace for Core: 0 Repeating trace: traces/.champsimtrace.xz
xz: traces/.champsimtrace.xz: No such file or directory
*** Reached end of trace for Core: 0 Repeating trace: traces/.champsimtrace.xz
xz: traces/.champsimtrace.xz: No such file or directory
*** Reached end of trace for Core: 0 Repeating trace: traces/.champsimtrace.xz
xz: traces/.champsimtrace.xz: No such file or directory
*** Reached end of trace for Core: 0 Repeating trace: traces/.champsimtrace.xz
xz: traces/.champsimtrace.xz: No such file or directory
*** Reached end of trace for Core: 0 Repeating trace: traces/.champsimtrace.xz
xz: traces/.champsimtrace.xz: No such file or directory
*** Reached end of trace for Core: 0 Repeating trace: traces/.champsimtrace.xz
xz: traces/.champsimtrace.xz: No such file or directory
*** Reached end of trace for Core: 0 Repeating trace: traces/.champsimtrace.xz
xz: traces/.champsimtrace.xz: No such file or directory
*** Reached end of trace for Core: 0 Repeating trace: traces/.champsimtrace.xz
xz: traces/.champsimtrace.xz: No such file or directory
*** Reached end of trace for Core: 0 Repeating trace: traces/.champsimtrace.xz
xz: traces/.champsimtrace.xz: No such file or directory
*** Reached end of trace for Core: 0 Repeating trace: traces/.champsimtrace.xz
xz: traces/.champsimtrace.xz: No such file or directory
*** Reached end of trace for Core: 0 Repeating trace: traces/.champsimtrace.xz
xz: traces/.champsimtrace.xz: No such file or directory
*** Reached end of trace for Core: 0 Repeating trace: traces/.champsimtrace.xz
xz: traces/.champsimtrace.xz: No such file or directory
*** Reached end of trace for Core: 0 Repeating trace: traces/.champsimtrace.xz
xz: traces/.champsimtrace.xz: No such file or directory
*** Reached end of trace for Core: 0 Repeating trace: traces/.champsimtrace.xz
xz: traces/.champsimtrace.xz: No such file or directory
*** Reached end of trace for Core: 0 Repeating trace: traces/.champsimtrace.xz
xz: traces/.champsimtrace.xz: No such file or directory
*** Reached end of trace for Core: 0 Repeating trace: traces/.champsimtrace.xz
xz: traces/.champsimtrace.xz: No such file or directory
*** Reached end of trace for Core: 0 Repeating trace: traces/.champsimtrace.xz
xz: traces/.champsimtrace.xz: No such file or directory
*** Reached end of trace for Core: 0 Repeating trace: traces/.champsimtrace.xz
xz: traces/.champsimtrace.xz: No such file or directory
*** Reached end of trace for Core: 0 Repeating trace: traces/.champsimtrace.xz
xz: traces/.champsimtrace.xz: No such file or directory
*** Reached end of trace for Core: 0 Repeating trace: traces/.champsimtrace.xz
xz: traces/.champsimtrace.xz: No such file or directory
*** Reached end of trace for Core: 0 Repeating trace: traces/.champsimtrace.xz
xz: traces/.champsimtrace.xz: No such file or directory
*** Reached end of trace for Core: 0 Repeating trace: traces/.champsimtrace.xz
xz: traces/.champsimtrace.xz: No such file or directory
*** Reached end of trace for Core: 0 Repeating trace: traces/.champsimtrace.xz
xz: traces/.champsimtrace.xz: No such file or directory
*** Reached end of trace for Core: 0 Repeating trace: traces/.champsimtrace.xz
xz: traces/.champsimtrace.xz: No such file or directory
*** Reached end of trace for Core: 0 Repeating trace: traces/.champsimtrace.xz
xz: traces/.champsimtrace.xz: No such file or directory
*** Reached end of trace for Core: 0 Repeating trace: traces/.champsimtrace.xz
xz: traces/.champsimtrace.xz: No such file or directory
*** Reached end of trace for Core: 0 Repeating trace: traces/.champsimtrace.xz
xz: traces/.champsimtrace.xz: No such file or directory
*** Reached end of trace for Core: 0 Repeating trace: traces/.champsimtrace.xz
xz: traces/.champsimtrace.xz: No such file or directory
*** Reached end of trace for Core: 0 Repeating trace: traces/.champsimtrace.xz
xz: traces/.champsimtrace.xz: No such file or directory
*** Reached end of trace for Core: 0 Repeating trace: traces/.champsimtrace.xz
xz: traces/.champsimtrace.xz: No such file or directory
*** Reached end of trace for Core: 0 Repeating trace: traces/.champsimtrace.xz
xz: traces/.champsimtrace.xz: No such file or directory
*** Reached end of trace for Core: 0 Repeating trace: traces/.champsimtrace.xz
xz: traces/.champsimtrace.xz: No such file or directory
*** Reached end of trace for Core: 0 Repeating trace: traces/.champsimtrace.xz
xz: traces/.champsimtrace.xz: No such file or directory
*** Reached end of trace for Core: 0 Repeating trace: traces/.champsimtrace.xz
xz: traces/.champsimtrace.xz: No such file or directory
*** Reached end of trace for Core: 0 Repeating trace: traces/.champsimtrace.xz
xz: traces/.champsimtrace.xz: No such file or directory
*** Reached end of trace for Core: 0 Repeating trace: traces/.champsimtrace.xz
xz: traces/.champsimtrace.xz: No such file or directory
*** Reached end of trace for Core: 0 Repeating trace: traces/.champsimtrace.xz
xz: traces/.champsimtrace.xz: No such file or directory
*** Reached end of trace for Core: 0 Repeating trace: traces/.champsimtrace.xz
xz: traces/.champsimtrace.xz: No such file or directory
*** Reached end of trace for Core: 0 Repeating trace: traces/.champsimtrace.xz
xz: traces/.champsimtrace.xz: No such file or directory
*** Reached end of trace for Core: 0 Repeating trace: traces/.champsimtrace.xz
xz: traces/.champsimtrace.xz: No such file or directory
*** Reached end of trace for Core: 0 Repeating trace: traces/.champsimtrace.xz
xz: traces/.champsimtrace.xz: No such file or directory
*** Reached end of trace for Core: 0 Repeating trace: traces/.champsimtrace.xz
xz: traces/.champsimtrace.xz: No such file or directory
*** Reached end of trace for Core: 0 Repeating trace: traces/.champsimtrace.xz
xz: traces/.champsimtrace.xz: No such file or directory
*** Reached end of trace for Core: 0 Repeating trace: traces/.champsimtrace.xz
xz: traces/.champsimtrace.xz: No such file or directory
*** Reached end of trace for Core: 0 Repeating trace: traces/.champsimtrace.xz
xz: traces/.champsimtrace.xz: No such file or directory
*** Reached end of trace for Core: 0 Repeating trace: traces/.champsimtrace.xz
xz: traces/.champsimtrace.xz: No such file or directory
*** Reached end of trace for Core: 0 Repeating trace: traces/.champsimtrace.xz
xz: traces/.champsimtrace.xz: No such file or directory
*** Reached end of trace for Core: 0 Repeating trace: traces/.champsimtrace.xz
xz: traces/.champsimtrace.xz: No such file or directory
*** Reached end of trace for Core: 0 Repeating trace: traces/.champsimtrace.xz
xz: traces/.champsimtrace.xz: No such file or directory
*** Reached end of trace for Core: 0 Repeating trace: traces/.champsimtrace.xz
xz: traces/.champsimtrace.xz: No such file or directory
*** Reached end of trace for Core: 0 Repeating trace: traces/.champsimtrace.xz
xz: traces/.champsimtrace.xz: No such file or directory
*** Reached end of trace for Core: 0 Repeating trace: traces/.champsimtrace.xz
xz: traces/.champsimtrace.xz: No such file or directory
*** Reached end of trace for Core: 0 Repeating trace: traces/.champsimtrace.xz
xz: traces/.champsimtrace.xz: No such file or directory
*** Reached end of trace for Core: 0 Repeating trace: traces/.champsimtrace.xz
xz: traces/.champsimtrace.xz: No such file or directory
*** Reached end of trace for Core: 0 Repeating trace: traces/.champsimtrace.xz
xz: traces/.champsimtrace.xz: No such file or directory
*** Reached end of trace for Core: 0 Repeating trace: traces/.champsimtrace.xz
xz: traces/.champsimtrace.xz: No such file or directory
*** Reached end of trace for Core: 0 Repeating trace: traces/.champsimtrace.xz
xz: traces/.champsimtrace.xz: No such file or directory
*** Reached end of trace for Core: 0 Repeating trace: traces/.champsimtrace.xz
xz: traces/.champsimtrace.xz: No such file or directory
*** Reached end of trace for Core: 0 Repeating trace: traces/.champsimtrace.xz
xz: traces/.champsimtrace.xz: No such file or directory
*** Reached end of trace for Core: 0 Repeating trace: traces/.champsimtrace.xz
xz: traces/.champsimtrace.xz: No such file or directory
*** Reached end of trace for Core: 0 Repeating trace: traces/.champsimtrace.xz
xz: traces/.champsimtrace.xz: No such file or directory
*** Reached end of trace for Core: 0 Repeating trace: traces/.champsimtrace.xz
xz: traces/.champsimtrace.xz: No such file or directory
*** Reached end of trace for Core: 0 Repeating trace: traces/.champsimtrace.xz
xz: traces/.champsimtrace.xz: No such file or directory
*** Reached end of trace for Core: 0 Repeating trace: traces/.champsimtrace.xz
xz: traces/.champsimtrace.xz: No such file or directory
*** Reached end of trace for Core: 0 Repeating trace: traces/.champsimtrace.xz
xz: traces/.champsimtrace.xz: No such file or directory
*** Reached end of trace for Core: 0 Repeating trace: traces/.champsimtrace.xz
xz: traces/.champsimtrace.xz: No such file or directory
*** Reached end of trace for Core: 0 Repeating trace: traces/.champsimtrace.xz
xz: traces/.champsimtrace.xz: No such file or directory
*** Reached end of trace for Core: 0 Repeating trace: traces/.champsimtrace.xz
xz: traces/.champsimtrace.xz: No such file or directory
*** Reached end of trace for Core: 0 Repeating trace: traces/.champsimtrace.xz
xz: traces/.champsimtrace.xz: No such file or directory
*** Reached end of trace for Core: 0 Repeating trace: traces/.champsimtrace.xz
xz: traces/.champsimtrace.xz: No such file or directory
*** Reached end of trace for Core: 0 Repeating trace: traces/.champsimtrace.xz
xz: traces/.champsimtrace.xz: No such file or directory
*** Reached end of trace for Core: 0 Repeating trace: traces/.champsimtrace.xz
xz: traces/.champsimtrace.xz: No such file or directory
*** Reached end of trace for Core: 0 Repeating trace: traces/.champsimtrace.xz
xz: traces/.champsimtrace.xz: No such file or directory
*** Reached end of trace for Core: 0 Repeating trace: traces/.champsimtrace.xz
xz: traces/.champsimtrace.xz: No such file or directory
*** Reached end of trace for Core: 0 Repeating trace: traces/.champsimtrace.xz
xz: traces/.champsimtrace.xz: No such file or directory
*** Reached end of trace for Core: 0 Repeating trace: traces/.champsimtrace.xz
xz: traces/.champsimtrace.xz: No such file or directory
*** Reached end of trace for Core: 0 Repeating trace: traces/.champsimtrace.xz
xz: traces/.champsimtrace.xz: No such file or directory
*** Reached end of trace for Core: 0 Repeating trace: traces/.champsimtrace.xz
xz: traces/.champsimtrace.xz: No such file or directory
*** Reached end of trace for Core: 0 Repeating trace: traces/.champsimtrace.xz
xz: traces/.champsimtrace.xz: No such file or directory
*** Reached end of trace for Core: 0 Repeating trace: traces/.champsimtrace.xz
xz: traces/.champsimtrace.xz: No such file or directory
*** Reached end of trace for Core: 0 Repeating trace: traces/.champsimtrace.xz
xz: traces/.champsimtrace.xz: No such file or directory
*** Reached end of trace for Core: 0 Repeating trace: traces/.champsimtrace.xz
xz: traces/.champsimtrace.xz: No such file or directory
*** Reached end of trace for Core: 0 Repeating trace: traces/.champsimtrace.xz
xz: traces/.champsimtrace.xz: No such file or directory
*** Reached end of trace for Core: 0 Repeating trace: traces/.champsimtrace.xz
xz: traces/.champsimtrace.xz: No such file or directory
*** Reached end of trace for Core: 0 Repeating trace: traces/.champsimtrace.xz
xz: traces/.champsimtrace.xz: No such file or directory
*** Reached end of trace for Core: 0 Repeating trace: traces/.champsimtrace.xz
xz: traces/.champsimtrace.xz: No such file or directory
*** Reached end of trace for Core: 0 Repeating trace: traces/.champsimtrace.xz
xz: traces/.champsimtrace.xz: No such file or directory
*** Reached end of trace for Core: 0 Repeating trace: traces/.champsimtrace.xz
xz: traces/.champsimtrace.xz: No such file or directory
*** Reached end of trace for Core: 0 Repeating trace: traces/.champsimtrace.xz
xz: traces/.champsimtrace.xz: No such file or directory
*** Reached end of trace for Core: 0 Repeating trace: traces/.champsimtrace.xz
xz: traces/.champsimtrace.xz: No such file or directory
*** Reached end of trace for Core: 0 Repeating trace: traces/.champsimtrace.xz
xz: traces/.champsimtrace.xz: No such file or directory
*** Reached end of trace for Core: 0 Repeating trace: traces/.champsimtrace.xz
xz: traces/.champsimtrace.xz: No such file or directory
*** Reached end of trace for Core: 0 Repeating trace: traces/.champsimtrace.xz
xz: traces/.champsimtrace.xz: No such file or directory
*** Reached end of trace for Core: 0 Repeating trace: traces/.champsimtrace.xz
xz: traces/.champsimtrace.xz: No such file or directory
*** Reached end of trace for Core: 0 Repeating trace: traces/.champsimtrace.xz
xz: traces/.champsimtrace.xz: No such file or directory
*** Reached end of trace for Core: 0 Repeating trace: traces/.champsimtrace.xz
xz: traces/.champsimtrace.xz: No such file or directory
*** Reached end of trace for Core: 0 Repeating trace: traces/.champsimtrace.xz
xz: traces/.champsimtrace.xz: No such file or directory
*** Reached end of trace for Core: 0 Repeating trace: traces/.champsimtrace.xz
xz: traces/.champsimtrace.xz: No such file or directory
*** Reached end of trace for Core: 0 Repeating trace: traces/.champsimtrace.xz
xz: traces/.champsimtrace.xz: No such file or directory
*** Reached end of trace for Core: 0 Repeating trace: traces/.champsimtrace.xz
xz: traces/.champsimtrace.xz: No such file or directory
*** Reached end of trace for Core: 0 Repeating trace: traces/.champsimtrace.xz
xz: traces/.champsimtrace.xz: No such file or directory
*** Reached end of trace for Core: 0 Repeating trace: traces/.champsimtrace.xz
xz: traces/.champsimtrace.xz: No such file or directory
*** Reached end of trace for Core: 0 Repeating trace: traces/.champsimtrace.xz
xz: traces/.champsimtrace.xz: No such file or directory
*** Reached end of trace for Core: 0 Repeating trace: traces/.champsimtrace.xz
xz: traces/.champsimtrace.xz: No such file or directory
*** Reached end of trace for Core: 0 Repeating trace: traces/.champsimtrace.xz
xz: traces/.champsimtrace.xz: No such file or directory
*** Reached end of trace for Core: 0 Repeating trace: traces/.champsimtrace.xz
xz: traces/.champsimtrace.xz: No such file or directory
*** Reached end of trace for Core: 0 Repeating trace: traces/.champsimtrace.xz
xz: traces/.champsimtrace.xz: No such file or directory
*** Reached end of trace for Core: 0 Repeating trace: traces/.champsimtrace.xz
xz: traces/.champsimtrace.xz: No such file or directory
*** Reached end of trace for Core: 0 Repeating trace: traces/.champsimtrace.xz
xz: traces/.champsimtrace.xz: No such file or directory
*** Reached end of trace for Core: 0 Repeating trace: traces/.champsimtrace.xz
xz: traces/.champsimtrace.xz: No such file or directory
*** Reached end of trace for Core: 0 Repeating trace: traces/.champsimtrace.xz
xz: traces/.champsimtrace.xz: No such file or directory
*** Reached end of trace for Core: 0 Repeating trace: traces/.champsimtrace.xz
xz: traces/.champsimtrace.xz: No such file or directory
*** Reached end of trace for Core: 0 Repeating trace: traces/.champsimtrace.xz
xz: traces/.champsimtrace.xz: No such file or directory
*** Reached end of trace for Core: 0 Repeating trace: traces/.champsimtrace.xz
xz: traces/.champsimtrace.xz: No such file or directory
*** Reached end of trace for Core: 0 Repeating trace: traces/.champsimtrace.xz
xz: traces/.champsimtrace.xz: No such file or directory
*** Reached end of trace for Core: 0 Repeating trace: traces/.champsimtrace.xz
xz: traces/.champsimtrace.xz: No such file or directory
*** Reached end of trace for Core: 0 Repeating trace: traces/.champsimtrace.xz
xz: traces/.champsimtrace.xz: No such file or directory
*** Reached end of trace for Core: 0 Repeating trace: traces/.champsimtrace.xz
xz: traces/.champsimtrace.xz: No such file or directory
*** Reached end of trace for Core: 0 Repeating trace: traces/.champsimtrace.xz
xz: traces/.champsimtrace.xz: No such file or directory
*** Reached end of trace for Core: 0 Repeating trace: traces/.champsimtrace.xz
xz: traces/.champsimtrace.xz: No such file or directory
*** Reached end of trace for Core: 0 Repeating trace: traces/.champsimtrace.xz
xz: traces/.champsimtrace.xz: No such file or directory
*** Reached end of trace for Core: 0 Repeating trace: traces/.champsimtrace.xz
xz: traces/.champsimtrace.xz: No such file or directory
*** Reached end of trace for Core: 0 Repeating trace: traces/.champsimtrace.xz
xz: traces/.champsimtrace.xz: No such file or directory
*** Reached end of trace for Core: 0 Repeating trace: traces/.champsimtrace.xz
xz: traces/.champsimtrace.xz: No such file or directory
*** Reached end of trace for Core: 0 Repeating trace: traces/.champsimtrace.xz
xz: traces/.champsimtrace.xz: No such file or directory
*** Reached end of trace for Core: 0 Repeating trace: traces/.champsimtrace.xz
xz: traces/.champsimtrace.xz: No such file or directory
*** Reached end of trace for Core: 0 Repeating trace: traces/.champsimtrace.xz
xz: traces/.champsimtrace.xz: No such file or directory
*** Reached end of trace for Core: 0 Repeating trace: traces/.champsimtrace.xz
xz: traces/.champsimtrace.xz: No such file or directory
*** Reached end of trace for Core: 0 Repeating trace: traces/.champsimtrace.xz
xz: traces/.champsimtrace.xz: No such file or directory
*** Reached end of trace for Core: 0 Repeating trace: traces/.champsimtrace.xz
xz: traces/.champsimtrace.xz: No such file or directory
*** Reached end of trace for Core: 0 Repeating trace: traces/.champsimtrace.xz
xz: traces/.champsimtrace.xz: No such file or directory
*** Reached end of trace for Core: 0 Repeating trace: traces/.champsimtrace.xz
xz: traces/.champsimtrace.xz: No such file or directory
*** Reached end of trace for Core: 0 Repeating trace: traces/.champsimtrace.xz
xz: traces/.champsimtrace.xz: No such file or directory
*** Reached end of trace for Core: 0 Repeating trace: traces/.champsimtrace.xz
xz: traces/.champsimtrace.xz: No such file or directory
*** Reached end of trace for Core: 0 Repeating trace: traces/.champsimtrace.xz
xz: traces/.champsimtrace.xz: No such file or directory
*** Reached end of trace for Core: 0 Repeating trace: traces/.champsimtrace.xz
xz: traces/.champsimtrace.xz: No such file or directory
*** Reached end of trace for Core: 0 Repeating trace: traces/.champsimtrace.xz
xz: traces/.champsimtrace.xz: No such file or directory
*** Reached end of trace for Core: 0 Repeating trace: traces/.champsimtrace.xz
xz: traces/.champsimtrace.xz: No such file or directory
*** Reached end of trace for Core: 0 Repeating trace: traces/.champsimtrace.xz
xz: traces/.champsimtrace.xz: No such file or directory
*** Reached end of trace for Core: 0 Repeating trace: traces/.champsimtrace.xz
xz: traces/.champsimtrace.xz: No such file or directory
*** Reached end of trace for Core: 0 Repeating trace: traces/.champsimtrace.xz
xz: traces/.champsimtrace.xz: No such file or directory
*** Reached end of trace for Core: 0 Repeating trace: traces/.champsimtrace.xz
xz: traces/.champsimtrace.xz: No such file or directory
*** Reached end of trace for Core: 0 Repeating trace: traces/.champsimtrace.xz
xz: traces/.champsimtrace.xz: No such file or directory
*** Reached end of trace for Core: 0 Repeating trace: traces/.champsimtrace.xz
xz: traces/.champsimtrace.xz: No such file or directory
*** Reached end of trace for Core: 0 Repeating trace: traces/.champsimtrace.xz
xz: traces/.champsimtrace.xz: No such file or directory
*** Reached end of trace for Core: 0 Repeating trace: traces/.champsimtrace.xz
xz: traces/.champsimtrace.xz: No such file or directory
*** Reached end of trace for Core: 0 Repeating trace: traces/.champsimtrace.xz
xz: traces/.champsimtrace.xz: No such file or directory
*** Reached end of trace for Core: 0 Repeating trace: traces/.champsimtrace.xz
xz: traces/.champsimtrace.xz: No such file or directory
*** Reached end of trace for Core: 0 Repeating trace: traces/.champsimtrace.xz
xz: traces/.champsimtrace.xz: No such file or directory
*** Reached end of trace for Core: 0 Repeating trace: traces/.champsimtrace.xz
xz: traces/.champsimtrace.xz: No such file or directory
*** Reached end of trace for Core: 0 Repeating trace: traces/.champsimtrace.xz
xz: traces/.champsimtrace.xz: No such file or directory
*** Reached end of trace for Core: 0 Repeating trace: traces/.champsimtrace.xz
xz: traces/.champsimtrace.xz: No such file or directory
*** Reached end of trace for Core: 0 Repeating trace: traces/.champsimtrace.xz
xz: traces/.champsimtrace.xz: No such file or directory
*** Reached end of trace for Core: 0 Repeating trace: traces/.champsimtrace.xz
xz: traces/.champsimtrace.xz: No such file or directory
*** Reached end of trace for Core: 0 Repeating trace: traces/.champsimtrace.xz
xz: traces/.champsimtrace.xz: No such file or directory
*** Reached end of trace for Core: 0 Repeating trace: traces/.champsimtrace.xz
xz: traces/.champsimtrace.xz: No such file or directory
*** Reached end of trace for Core: 0 Repeating trace: traces/.champsimtrace.xz
xz: traces/.champsimtrace.xz: No such file or directory
*** Reached end of trace for Core: 0 Repeating trace: traces/.champsimtrace.xz
xz: traces/.champsimtrace.xz: No such file or directory
*** Reached end of trace for Core: 0 Repeating trace: traces/.champsimtrace.xz
xz: traces/.champsimtrace.xz: No such file or directory
*** Reached end of trace for Core: 0 Repeating trace: traces/.champsimtrace.xz
xz: traces/.champsimtrace.xz: No such file or directory
*** Reached end of trace for Core: 0 Repeating trace: traces/.champsimtrace.xz
xz: traces/.champsimtrace.xz: No such file or directory
*** Reached end of trace for Core: 0 Repeating trace: traces/.champsimtrace.xz
xz: traces/.champsimtrace.xz: No such file or directory
*** Reached end of trace for Core: 0 Repeating trace: traces/.champsimtrace.xz
xz: traces/.champsimtrace.xz: No such file or directory
*** Reached end of trace for Core: 0 Repeating trace: traces/.champsimtrace.xz
xz: traces/.champsimtrace.xz: No such file or directory
*** Reached end of trace for Core: 0 Repeating trace: traces/.champsimtrace.xz
xz: traces/.champsimtrace.xz: No such file or directory
*** Reached end of trace for Core: 0 Repeating trace: traces/.champsimtrace.xz
xz: traces/.champsimtrace.xz: No such file or directory
*** Reached end of trace for Core: 0 Repeating trace: traces/.champsimtrace.xz
xz: traces/.champsimtrace.xz: No such file or directory
*** Reached end of trace for Core: 0 Repeating trace: traces/.champsimtrace.xz
xz: traces/.champsimtrace.xz: No such file or directory
*** Reached end of trace for Core: 0 Repeating trace: traces/.champsimtrace.xz
xz: traces/.champsimtrace.xz: No such file or directory
*** Reached end of trace for Core: 0 Repeating trace: traces/.champsimtrace.xz
xz: traces/.champsimtrace.xz: No such file or directory
*** Reached end of trace for Core: 0 Repeating trace: traces/.champsimtrace.xz
xz: traces/.champsimtrace.xz: No such file or directory
*** Reached end of trace for Core: 0 Repeating trace: traces/.champsimtrace.xz
xz: traces/.champsimtrace.xz: No such file or directory
*** Reached end of trace for Core: 0 Repeating trace: traces/.champsimtrace.xz
xz: traces/.champsimtrace.xz: No such file or directory
*** Reached end of trace for Core: 0 Repeating trace: traces/.champsimtrace.xz
xz: traces/.champsimtrace.xz: No such file or directory
*** Reached end of trace for Core: 0 Repeating trace: traces/.champsimtrace.xz
xz: traces/.champsimtrace.xz: No such file or directory
*** Reached end of trace for Core: 0 Repeating trace: traces/.champsimtrace.xz
xz: traces/.champsimtrace.xz: No such file or directory
*** Reached end of trace for Core: 0 Repeating trace: traces/.champsimtrace.xz
xz: traces/.champsimtrace.xz: No such file or directory
*** Reached end of trace for Core: 0 Repeating trace: traces/.champsimtrace.xz
xz: traces/.champsimtrace.xz: No such file or directory
*** Reached end of trace for Core: 0 Repeating trace: traces/.champsimtrace.xz
xz: traces/.champsimtrace.xz: No such file or directory
*** Reached end of trace for Core: 0 Repeating trace: traces/.champsimtrace.xz
xz: traces/.champsimtrace.xz: No such file or directory
*** Reached end of trace for Core: 0 Repeating trace: traces/.champsimtrace.xz
xz: traces/.champsimtrace.xz: No such file or directory
*** Reached end of trace for Core: 0 Repeating trace: traces/.champsimtrace.xz
xz: traces/.champsimtrace.xz: No such file or directory
*** Reached end of trace for Core: 0 Repeating trace: traces/.champsimtrace.xz
xz: traces/.champsimtrace.xz: No such file or directory
*** Reached end of trace for Core: 0 Repeating trace: traces/.champsimtrace.xz
xz: traces/.champsimtrace.xz: No such file or directory
*** Reached end of trace for Core: 0 Repeating trace: traces/.champsimtrace.xz
xz: traces/.champsimtrace.xz: No such file or directory
*** Reached end of trace for Core: 0 Repeating trace: traces/.champsimtrace.xz
xz: traces/.champsimtrace.xz: No such file or directory
*** Reached end of trace for Core: 0 Repeating trace: traces/.champsimtrace.xz
xz: traces/.champsimtrace.xz: No such file or directory
*** Reached end of trace for Core: 0 Repeating trace: traces/.champsimtrace.xz
xz: traces/.champsimtrace.xz: No such file or directory
*** Reached end of trace for Core: 0 Repeating trace: traces/.champsimtrace.xz
xz: traces/.champsimtrace.xz: No such file or directory
*** Reached end of trace for Core: 0 Repeating trace: traces/.champsimtrace.xz
xz: traces/.champsimtrace.xz: No such file or directory
*** Reached end of trace for Core: 0 Repeating trace: traces/.champsimtrace.xz
xz: traces/.champsimtrace.xz: No such file or directory
*** Reached end of trace for Core: 0 Repeating trace: traces/.champsimtrace.xz
xz: traces/.champsimtrace.xz: No such file or directory
*** Reached end of trace for Core: 0 Repeating trace: traces/.champsimtrace.xz
xz: traces/.champsimtrace.xz: No such file or directory
*** Reached end of trace for Core: 0 Repeating trace: traces/.champsimtrace.xz
xz: traces/.champsimtrace.xz: No such file or directory
*** Reached end of trace for Core: 0 Repeating trace: traces/.champsimtrace.xz
xz: traces/.champsimtrace.xz: No such file or directory
*** Reached end of trace for Core: 0 Repeating trace: traces/.champsimtrace.xz
xz: traces/.champsimtrace.xz: No such file or directory
*** Reached end of trace for Core: 0 Repeating trace: traces/.champsimtrace.xz
xz: traces/.champsimtrace.xz: No such file or directory
*** Reached end of trace for Core: 0 Repeating trace: traces/.champsimtrace.xz
xz: traces/.champsimtrace.xz: No such file or directory
*** Reached end of trace for Core: 0 Repeating trace: traces/.champsimtrace.xz
xz: traces/.champsimtrace.xz: No such file or directory
*** Reached end of trace for Core: 0 Repeating trace: traces/.champsimtrace.xz
xz: traces/.champsimtrace.xz: No such file or directory
*** Reached end of trace for Core: 0 Repeating trace: traces/.champsimtrace.xz
xz: traces/.champsimtrace.xz: No such file or directory
*** Reached end of trace for Core: 0 Repeating trace: traces/.champsimtrace.xz
xz: traces/.champsimtrace.xz: No such file or directory
*** Reached end of trace for Core: 0 Repeating trace: traces/.champsimtrace.xz
xz: traces/.champsimtrace.xz: No such file or directory
*** Reached end of trace for Core: 0 Repeating trace: traces/.champsimtrace.xz
xz: traces/.champsimtrace.xz: No such file or directory
*** Reached end of trace for Core: 0 Repeating trace: traces/.champsimtrace.xz
xz: traces/.champsimtrace.xz: No such file or directory
*** Reached end of trace for Core: 0 Repeating trace: traces/.champsimtrace.xz
xz: traces/.champsimtrace.xz: No such file or directory
*** Reached end of trace for Core: 0 Repeating trace: traces/.champsimtrace.xz
xz: traces/.champsimtrace.xz: No such file or directory
*** Reached end of trace for Core: 0 Repeating trace: traces/.champsimtrace.xz
xz: traces/.champsimtrace.xz: No such file or directory
*** Reached end of trace for Core: 0 Repeating trace: traces/.champsimtrace.xz
xz: traces/.champsimtrace.xz: No such file or directory
*** Reached end of trace for Core: 0 Repeating trace: traces/.champsimtrace.xz
xz: traces/.champsimtrace.xz: No such file or directory
*** Reached end of trace for Core: 0 Repeating trace: traces/.champsimtrace.xz
xz: traces/.champsimtrace.xz: No such file or directory
*** Reached end of trace for Core: 0 Repeating trace: traces/.champsimtrace.xz
xz: traces/.champsimtrace.xz: No such file or directory
*** Reached end of trace for Core: 0 Repeating trace: traces/.champsimtrace.xz
xz: traces/.champsimtrace.xz: No such file or directory
*** Reached end of trace for Core: 0 Repeating trace: traces/.champsimtrace.xz
xz: traces/.champsimtrace.xz: No such file or directory
*** Reached end of trace for Core: 0 Repeating trace: traces/.champsimtrace.xz
xz: traces/.champsimtrace.xz: No such file or directory
*** Reached end of trace for Core: 0 Repeating trace: traces/.champsimtrace.xz
xz: traces/.champsimtrace.xz: No such file or directory
*** Reached end of trace for Core: 0 Repeating trace: traces/.champsimtrace.xz
xz: traces/.champsimtrace.xz: No such file or directory
*** Reached end of trace for Core: 0 Repeating trace: traces/.champsimtrace.xz
xz: traces/.champsimtrace.xz: No such file or directory
*** Reached end of trace for Core: 0 Repeating trace: traces/.champsimtrace.xz
xz: traces/.champsimtrace.xz: No such file or directory
*** Reached end of trace for Core: 0 Repeating trace: traces/.champsimtrace.xz
xz: traces/.champsimtrace.xz: No such file or directory
*** Reached end of trace for Core: 0 Repeating trace: traces/.champsimtrace.xz
xz: traces/.champsimtrace.xz: No such file or directory
*** Reached end of trace for Core: 0 Repeating trace: traces/.champsimtrace.xz
xz: traces/.champsimtrace.xz: No such file or directory
*** Reached end of trace for Core: 0 Repeating trace: traces/.champsimtrace.xz
xz: traces/.champsimtrace.xz: No such file or directory
*** Reached end of trace for Core: 0 Repeating trace: traces/.champsimtrace.xz
xz: traces/.champsimtrace.xz: No such file or directory
*** Reached end of trace for Core: 0 Repeating trace: traces/.champsimtrace.xz
xz: traces/.champsimtrace.xz: No such file or directory
*** Reached end of trace for Core: 0 Repeating trace: traces/.champsimtrace.xz
xz: traces/.champsimtrace.xz: No such file or directory
*** Reached end of trace for Core: 0 Repeating trace: traces/.champsimtrace.xz
xz: traces/.champsimtrace.xz: No such file or directory
*** Reached end of trace for Core: 0 Repeating trace: traces/.champsimtrace.xz
xz: traces/.champsimtrace.xz: No such file or directory
*** Reached end of trace for Core: 0 Repeating trace: traces/.champsimtrace.xz
xz: traces/.champsimtrace.xz: No such file or directory
*** Reached end of trace for Core: 0 Repeating trace: traces/.champsimtrace.xz
xz: traces/.champsimtrace.xz: No such file or directory
*** Reached end of trace for Core: 0 Repeating trace: traces/.champsimtrace.xz
xz: traces/.champsimtrace.xz: No such file or directory
*** Reached end of trace for Core: 0 Repeating trace: traces/.champsimtrace.xz
xz: traces/.champsimtrace.xz: No such file or directory
*** Reached end of trace for Core: 0 Repeating trace: traces/.champsimtrace.xz
xz: traces/.champsimtrace.xz: No such file or directory
*** Reached end of trace for Core: 0 Repeating trace: traces/.champsimtrace.xz
xz: traces/.champsimtrace.xz: No such file or directory
*** Reached end of trace for Core: 0 Repeating trace: traces/.champsimtrace.xz
xz: traces/.champsimtrace.xz: No such file or directory
*** Reached end of trace for Core: 0 Repeating trace: traces/.champsimtrace.xz
xz: traces/.champsimtrace.xz: No such file or directory
*** Reached end of trace for Core: 0 Repeating trace: traces/.champsimtrace.xz
xz: traces/.champsimtrace.xz: No such file or directory
*** Reached end of trace for Core: 0 Repeating trace: traces/.champsimtrace.xz
xz: traces/.champsimtrace.xz: No such file or directory
*** Reached end of trace for Core: 0 Repeating trace: traces/.champsimtrace.xz
xz: traces/.champsimtrace.xz: No such file or directory
*** Reached end of trace for Core: 0 Repeating trace: traces/.champsimtrace.xz
xz: traces/.champsimtrace.xz: No such file or directory
*** Reached end of trace for Core: 0 Repeating trace: traces/.champsimtrace.xz
xz: traces/.champsimtrace.xz: No such file or directory
*** Reached end of trace for Core: 0 Repeating trace: traces/.champsimtrace.xz
xz: traces/.champsimtrace.xz: No such file or directory
*** Reached end of trace for Core: 0 Repeating trace: traces/.champsimtrace.xz
xz: traces/.champsimtrace.xz: No such file or directory
*** Reached end of trace for Core: 0 Repeating trace: traces/.champsimtrace.xz
xz: traces/.champsimtrace.xz: No such file or directory
*** Reached end of trace for Core: 0 Repeating trace: traces/.champsimtrace.xz
xz: traces/.champsimtrace.xz: No such file or directory
*** Reached end of trace for Core: 0 Repeating trace: traces/.champsimtrace.xz
xz: traces/.champsimtrace.xz: No such file or directory
*** Reached end of trace for Core: 0 Repeating trace: traces/.champsimtrace.xz
xz: traces/.champsimtrace.xz: No such file or directory
*** Reached end of trace for Core: 0 Repeating trace: traces/.champsimtrace.xz
xz: traces/.champsimtrace.xz: No such file or directory
*** Reached end of trace for Core: 0 Repeating trace: traces/.champsimtrace.xz
xz: traces/.champsimtrace.xz: No such file or directory
*** Reached end of trace for Core: 0 Repeating trace: traces/.champsimtrace.xz
xz: traces/.champsimtrace.xz: No such file or directory
*** Reached end of trace for Core: 0 Repeating trace: traces/.champsimtrace.xz
xz: traces/.champsimtrace.xz: No such file or directory
*** Reached end of trace for Core: 0 Repeating trace: traces/.champsimtrace.xz
xz: traces/.champsimtrace.xz: No such file or directory
*** Reached end of trace for Core: 0 Repeating trace: traces/.champsimtrace.xz
xz: traces/.champsimtrace.xz: No such file or directory
*** Reached end of trace for Core: 0 Repeating trace: traces/.champsimtrace.xz
xz: traces/.champsimtrace.xz: No such file or directory
*** Reached end of trace for Core: 0 Repeating trace: traces/.champsimtrace.xz
xz: traces/.champsimtrace.xz: No such file or directory
*** Reached end of trace for Core: 0 Repeating trace: traces/.champsimtrace.xz
xz: traces/.champsimtrace.xz: No such file or directory
*** Reached end of trace for Core: 0 Repeating trace: traces/.champsimtrace.xz
xz: traces/.champsimtrace.xz: No such file or directory
*** Reached end of trace for Core: 0 Repeating trace: traces/.champsimtrace.xz
xz: traces/.champsimtrace.xz: No such file or directory
*** Reached end of trace for Core: 0 Repeating trace: traces/.champsimtrace.xz
xz: traces/.champsimtrace.xz: No such file or directory
*** Reached end of trace for Core: 0 Repeating trace: traces/.champsimtrace.xz
xz: traces/.champsimtrace.xz: No such file or directory
*** Reached end of trace for Core: 0 Repeating trace: traces/.champsimtrace.xz
xz: traces/.champsimtrace.xz: No such file or directory
*** Reached end of trace for Core: 0 Repeating trace: traces/.champsimtrace.xz
xz: traces/.champsimtrace.xz: No such file or directory
*** Reached end of trace for Core: 0 Repeating trace: traces/.champsimtrace.xz
xz: traces/.champsimtrace.xz: No such file or directory
*** Reached end of trace for Core: 0 Repeating trace: traces/.champsimtrace.xz
xz: traces/.champsimtrace.xz: No such file or directory
*** Reached end of trace for Core: 0 Repeating trace: traces/.champsimtrace.xz
xz: traces/.champsimtrace.xz: No such file or directory
*** Reached end of trace for Core: 0 Repeating trace: traces/.champsimtrace.xz
xz: traces/.champsimtrace.xz: No such file or directory
*** Reached end of trace for Core: 0 Repeating trace: traces/.champsimtrace.xz
xz: traces/.champsimtrace.xz: No such file or directory
*** Reached end of trace for Core: 0 Repeating trace: traces/.champsimtrace.xz
xz: traces/.champsimtrace.xz: No such file or directory
*** Reached end of trace for Core: 0 Repeating trace: traces/.champsimtrace.xz
xz: traces/.champsimtrace.xz: No such file or directory
*** Reached end of trace for Core: 0 Repeating trace: traces/.champsimtrace.xz
xz: traces/.champsimtrace.xz: No such file or directory
*** Reached end of trace for Core: 0 Repeating trace: traces/.champsimtrace.xz
xz: traces/.champsimtrace.xz: No such file or directory
*** Reached end of trace for Core: 0 Repeating trace: traces/.champsimtrace.xz
xz: traces/.champsimtrace.xz: No such file or directory
*** Reached end of trace for Core: 0 Repeating trace: traces/.champsimtrace.xz
xz: traces/.champsimtrace.xz: No such file or directory
*** Reached end of trace for Core: 0 Repeating trace: traces/.champsimtrace.xz
xz: traces/.champsimtrace.xz: No such file or directory
*** Reached end of trace for Core: 0 Repeating trace: traces/.champsimtrace.xz
xz: traces/.champsimtrace.xz: No such file or directory
*** Reached end of trace for Core: 0 Repeating trace: traces/.champsimtrace.xz
xz: traces/.champsimtrace.xz: No such file or directory
*** Reached end of trace for Core: 0 Repeating trace: traces/.champsimtrace.xz
xz: traces/.champsimtrace.xz: No such file or directory
*** Reached end of trace for Core: 0 Repeating trace: traces/.champsimtrace.xz
xz: traces/.champsimtrace.xz: No such file or directory
*** Reached end of trace for Core: 0 Repeating trace: traces/.champsimtrace.xz
xz: traces/.champsimtrace.xz: No such file or directory
*** Reached end of trace for Core: 0 Repeating trace: traces/.champsimtrace.xz
xz: traces/.champsimtrace.xz: No such file or directory
*** Reached end of trace for Core: 0 Repeating trace: traces/.champsimtrace.xz
xz: traces/.champsimtrace.xz: No such file or directory
*** Reached end of trace for Core: 0 Repeating trace: traces/.champsimtrace.xz
xz: traces/.champsimtrace.xz: No such file or directory
*** Reached end of trace for Core: 0 Repeating trace: traces/.champsimtrace.xz
xz: traces/.champsimtrace.xz: No such file or directory
*** Reached end of trace for Core: 0 Repeating trace: traces/.champsimtrace.xz
xz: traces/.champsimtrace.xz: No such file or directory
*** Reached end of trace for Core: 0 Repeating trace: traces/.champsimtrace.xz
xz: traces/.champsimtrace.xz: No such file or directory
*** Reached end of trace for Core: 0 Repeating trace: traces/.champsimtrace.xz
xz: traces/.champsimtrace.xz: No such file or directory
*** Reached end of trace for Core: 0 Repeating trace: traces/.champsimtrace.xz
xz: traces/.champsimtrace.xz: No such file or directory
*** Reached end of trace for Core: 0 Repeating trace: traces/.champsimtrace.xz
xz: traces/.champsimtrace.xz: No such file or directory
*** Reached end of trace for Core: 0 Repeating trace: traces/.champsimtrace.xz
xz: traces/.champsimtrace.xz: No such file or directory
*** Reached end of trace for Core: 0 Repeating trace: traces/.champsimtrace.xz
xz: traces/.champsimtrace.xz: No such file or directory
*** Reached end of trace for Core: 0 Repeating trace: traces/.champsimtrace.xz
xz: traces/.champsimtrace.xz: No such file or directory
*** Reached end of trace for Core: 0 Repeating trace: traces/.champsimtrace.xz
xz: traces/.champsimtrace.xz: No such file or directory
*** Reached end of trace for Core: 0 Repeating trace: traces/.champsimtrace.xz
xz: traces/.champsimtrace.xz: No such file or directory
*** Reached end of trace for Core: 0 Repeating trace: traces/.champsimtrace.xz
xz: traces/.champsimtrace.xz: No such file or directory
*** Reached end of trace for Core: 0 Repeating trace: traces/.champsimtrace.xz
xz: traces/.champsimtrace.xz: No such file or directory
*** Reached end of trace for Core: 0 Repeating trace: traces/.champsimtrace.xz
xz: traces/.champsimtrace.xz: No such file or directory
*** Reached end of trace for Core: 0 Repeating trace: traces/.champsimtrace.xz
xz: traces/.champsimtrace.xz: No such file or directory
*** Reached end of trace for Core: 0 Repeating trace: traces/.champsimtrace.xz
xz: traces/.champsimtrace.xz: No such file or directory
*** Reached end of trace for Core: 0 Repeating trace: traces/.champsimtrace.xz
xz: traces/.champsimtrace.xz: No such file or directory
*** Reached end of trace for Core: 0 Repeating trace: traces/.champsimtrace.xz
xz: traces/.champsimtrace.xz: No such file or directory
*** Reached end of trace for Core: 0 Repeating trace: traces/.champsimtrace.xz
xz: traces/.champsimtrace.xz: No such file or directory
*** Reached end of trace for Core: 0 Repeating trace: traces/.champsimtrace.xz
xz: traces/.champsimtrace.xz: No such file or directory
*** Reached end of trace for Core: 0 Repeating trace: traces/.champsimtrace.xz
xz: traces/.champsimtrace.xz: No such file or directory
*** Reached end of trace for Core: 0 Repeating trace: traces/.champsimtrace.xz
xz: traces/.champsimtrace.xz: No such file or directory
*** Reached end of trace for Core: 0 Repeating trace: traces/.champsimtrace.xz
xz: traces/.champsimtrace.xz: No such file or directory
*** Reached end of trace for Core: 0 Repeating trace: traces/.champsimtrace.xz
xz: traces/.champsimtrace.xz: No such file or directory
*** Reached end of trace for Core: 0 Repeating trace: traces/.champsimtrace.xz
xz: traces/.champsimtrace.xz: No such file or directory
*** Reached end of trace for Core: 0 Repeating trace: traces/.champsimtrace.xz
xz: traces/.champsimtrace.xz: No such file or directory
*** Reached end of trace for Core: 0 Repeating trace: traces/.champsimtrace.xz
xz: traces/.champsimtrace.xz: No such file or directory
*** Reached end of trace for Core: 0 Repeating trace: traces/.champsimtrace.xz
xz: traces/.champsimtrace.xz: No such file or directory
*** Reached end of trace for Core: 0 Repeating trace: traces/.champsimtrace.xz
xz: traces/.champsimtrace.xz: No such file or directory
*** Reached end of trace for Core: 0 Repeating trace: traces/.champsimtrace.xz
xz: traces/.champsimtrace.xz: No such file or directory
*** Reached end of trace for Core: 0 Repeating trace: traces/.champsimtrace.xz
xz: traces/.champsimtrace.xz: No such file or directory
*** Reached end of trace for Core: 0 Repeating trace: traces/.champsimtrace.xz
xz: traces/.champsimtrace.xz: No such file or directory
*** Reached end of trace for Core: 0 Repeating trace: traces/.champsimtrace.xz
xz: traces/.champsimtrace.xz: No such file or directory
*** Reached end of trace for Core: 0 Repeating trace: traces/.champsimtrace.xz
xz: traces/.champsimtrace.xz: No such file or directory
*** Reached end of trace for Core: 0 Repeating trace: traces/.champsimtrace.xz
xz: traces/.champsimtrace.xz: No such file or directory
*** Reached end of trace for Core: 0 Repeating trace: traces/.champsimtrace.xz
xz: traces/.champsimtrace.xz: No such file or directory
*** Reached end of trace for Core: 0 Repeating trace: traces/.champsimtrace.xz
xz: traces/.champsimtrace.xz: No such file or directory
*** Reached end of trace for Core: 0 Repeating trace: traces/.champsimtrace.xz
xz: traces/.champsimtrace.xz: No such file or directory
*** Reached end of trace for Core: 0 Repeating trace: traces/.champsimtrace.xz
xz: traces/.champsimtrace.xz: No such file or directory
*** Reached end of trace for Core: 0 Repeating trace: traces/.champsimtrace.xz
xz: traces/.champsimtrace.xz: No such file or directory
*** Reached end of trace for Core: 0 Repeating trace: traces/.champsimtrace.xz
xz: traces/.champsimtrace.xz: No such file or directory
*** Reached end of trace for Core: 0 Repeating trace: traces/.champsimtrace.xz
xz: traces/.champsimtrace.xz: No such file or directory
*** Reached end of trace for Core: 0 Repeating trace: traces/.champsimtrace.xz
xz: traces/.champsimtrace.xz: No such file or directory
*** Reached end of trace for Core: 0 Repeating trace: traces/.champsimtrace.xz
xz: traces/.champsimtrace.xz: No such file or directory
*** Reached end of trace for Core: 0 Repeating trace: traces/.champsimtrace.xz
xz: traces/.champsimtrace.xz: No such file or directory
*** Reached end of trace for Core: 0 Repeating trace: traces/.champsimtrace.xz
xz: traces/.champsimtrace.xz: No such file or directory
*** Reached end of trace for Core: 0 Repeating trace: traces/.champsimtrace.xz
xz: traces/.champsimtrace.xz: No such file or directory
*** Reached end of trace for Core: 0 Repeating trace: traces/.champsimtrace.xz
xz: traces/.champsimtrace.xz: No such file or directory
*** Reached end of trace for Core: 0 Repeating trace: traces/.champsimtrace.xz
xz: traces/.champsimtrace.xz: No such file or directory
*** Reached end of trace for Core: 0 Repeating trace: traces/.champsimtrace.xz
xz: traces/.champsimtrace.xz: No such file or directory
*** Reached end of trace for Core: 0 Repeating trace: traces/.champsimtrace.xz
xz: traces/.champsimtrace.xz: No such file or directory
*** Reached end of trace for Core: 0 Repeating trace: traces/.champsimtrace.xz
xz: traces/.champsimtrace.xz: No such file or directory
*** Reached end of trace for Core: 0 Repeating trace: traces/.champsimtrace.xz
xz: traces/.champsimtrace.xz: No such file or directory
*** Reached end of trace for Core: 0 Repeating trace: traces/.champsimtrace.xz
xz: traces/.champsimtrace.xz: No such file or directory
*** Reached end of trace for Core: 0 Repeating trace: traces/.champsimtrace.xz
xz: traces/.champsimtrace.xz: No such file or directory
*** Reached end of trace for Core: 0 Repeating trace: traces/.champsimtrace.xz
xz: traces/.champsimtrace.xz: No such file or directory
*** Reached end of trace for Core: 0 Repeating trace: traces/.champsimtrace.xz
xz: traces/.champsimtrace.xz: No such file or directory
*** Reached end of trace for Core: 0 Repeating trace: traces/.champsimtrace.xz
xz: traces/.champsimtrace.xz: No such file or directory
*** Reached end of trace for Core: 0 Repeating trace: traces/.champsimtrace.xz
xz: traces/.champsimtrace.xz: No such file or directory
*** Reached end of trace for Core: 0 Repeating trace: traces/.champsimtrace.xz
xz: traces/.champsimtrace.xz: No such file or directory
*** Reached end of trace for Core: 0 Repeating trace: traces/.champsimtrace.xz
xz: traces/.champsimtrace.xz: No such file or directory
*** Reached end of trace for Core: 0 Repeating trace: traces/.champsimtrace.xz
xz: traces/.champsimtrace.xz: No such file or directory
*** Reached end of trace for Core: 0 Repeating trace: traces/.champsimtrace.xz
xz: traces/.champsimtrace.xz: No such file or directory
*** Reached end of trace for Core: 0 Repeating trace: traces/.champsimtrace.xz
xz: traces/.champsimtrace.xz: No such file or directory
*** Reached end of trace for Core: 0 Repeating trace: traces/.champsimtrace.xz
xz: traces/.champsimtrace.xz: No such file or directory
*** Reached end of trace for Core: 0 Repeating trace: traces/.champsimtrace.xz
xz: traces/.champsimtrace.xz: No such file or directory
*** Reached end of trace for Core: 0 Repeating trace: traces/.champsimtrace.xz
xz: traces/.champsimtrace.xz: No such file or directory
*** Reached end of trace for Core: 0 Repeating trace: traces/.champsimtrace.xz
xz: traces/.champsimtrace.xz: No such file or directory
*** Reached end of trace for Core: 0 Repeating trace: traces/.champsimtrace.xz
xz: traces/.champsimtrace.xz: No such file or directory
*** Reached end of trace for Core: 0 Repeating trace: traces/.champsimtrace.xz
xz: traces/.champsimtrace.xz: No such file or directory
*** Reached end of trace for Core: 0 Repeating trace: traces/.champsimtrace.xz
xz: traces/.champsimtrace.xz: No such file or directory
*** Reached end of trace for Core: 0 Repeating trace: traces/.champsimtrace.xz
xz: traces/.champsimtrace.xz: No such file or directory
*** Reached end of trace for Core: 0 Repeating trace: traces/.champsimtrace.xz
xz: traces/.champsimtrace.xz: No such file or directory
*** Reached end of trace for Core: 0 Repeating trace: traces/.champsimtrace.xz
xz: traces/.champsimtrace.xz: No such file or directory
*** Reached end of trace for Core: 0 Repeating trace: traces/.champsimtrace.xz
xz: traces/.champsimtrace.xz: No such file or directory
*** Reached end of trace for Core: 0 Repeating trace: traces/.champsimtrace.xz
xz: traces/.champsimtrace.xz: No such file or directory
*** Reached end of trace for Core: 0 Repeating trace: traces/.champsimtrace.xz
xz: traces/.champsimtrace.xz: No such file or directory
*** Reached end of trace for Core: 0 Repeating trace: traces/.champsimtrace.xz
xz: traces/.champsimtrace.xz: No such file or directory
*** Reached end of trace for Core: 0 Repeating trace: traces/.champsimtrace.xz
xz: traces/.champsimtrace.xz: No such file or directory
*** Reached end of trace for Core: 0 Repeating trace: traces/.champsimtrace.xz
xz: traces/.champsimtrace.xz: No such file or directory
*** Reached end of trace for Core: 0 Repeating trace: traces/.champsimtrace.xz
xz: traces/.champsimtrace.xz: No such file or directory
*** Reached end of trace for Core: 0 Repeating trace: traces/.champsimtrace.xz
xz: traces/.champsimtrace.xz: No such file or directory
*** Reached end of trace for Core: 0 Repeating trace: traces/.champsimtrace.xz
xz: traces/.champsimtrace.xz: No such file or directory
*** Reached end of trace for Core: 0 Repeating trace: traces/.champsimtrace.xz
xz: traces/.champsimtrace.xz: No such file or directory
*** Reached end of trace for Core: 0 Repeating trace: traces/.champsimtrace.xz
xz: traces/.champsimtrace.xz: No such file or directory
*** Reached end of trace for Core: 0 Repeating trace: traces/.champsimtrace.xz
xz: traces/.champsimtrace.xz: No such file or directory
*** Reached end of trace for Core: 0 Repeating trace: traces/.champsimtrace.xz
xz: traces/.champsimtrace.xz: No such file or directory
*** Reached end of trace for Core: 0 Repeating trace: traces/.champsimtrace.xz
xz: traces/.champsimtrace.xz: No such file or directory
*** Reached end of trace for Core: 0 Repeating trace: traces/.champsimtrace.xz
xz: traces/.champsimtrace.xz: No such file or directory
*** Reached end of trace for Core: 0 Repeating trace: traces/.champsimtrace.xz
xz: traces/.champsimtrace.xz: No such file or directory
*** Reached end of trace for Core: 0 Repeating trace: traces/.champsimtrace.xz
xz: traces/.champsimtrace.xz: No such file or directory
*** Reached end of trace for Core: 0 Repeating trace: traces/.champsimtrace.xz
xz: traces/.champsimtrace.xz: No such file or directory
*** Reached end of trace for Core: 0 Repeating trace: traces/.champsimtrace.xz
xz: traces/.champsimtrace.xz: No such file or directory
*** Reached end of trace for Core: 0 Repeating trace: traces/.champsimtrace.xz
xz: traces/.champsimtrace.xz: No such file or directory
*** Reached end of trace for Core: 0 Repeating trace: traces/.champsimtrace.xz
xz: traces/.champsimtrace.xz: No such file or directory
*** Reached end of trace for Core: 0 Repeating trace: traces/.champsimtrace.xz
xz: traces/.champsimtrace.xz: No such file or directory
*** Reached end of trace for Core: 0 Repeating trace: traces/.champsimtrace.xz
xz: traces/.champsimtrace.xz: No such file or directory
*** Reached end of trace for Core: 0 Repeating trace: traces/.champsimtrace.xz
xz: traces/.champsimtrace.xz: No such file or directory
*** Reached end of trace for Core: 0 Repeating trace: traces/.champsimtrace.xz
xz: traces/.champsimtrace.xz: No such file or directory
*** Reached end of trace for Core: 0 Repeating trace: traces/.champsimtrace.xz
xz: traces/.champsimtrace.xz: No such file or directory
*** Reached end of trace for Core: 0 Repeating trace: traces/.champsimtrace.xz
xz: traces/.champsimtrace.xz: No such file or directory
*** Reached end of trace for Core: 0 Repeating trace: traces/.champsimtrace.xz
xz: traces/.champsimtrace.xz: No such file or directory
*** Reached end of trace for Core: 0 Repeating trace: traces/.champsimtrace.xz
xz: traces/.champsimtrace.xz: No such file or directory
*** Reached end of trace for Core: 0 Repeating trace: traces/.champsimtrace.xz
xz: traces/.champsimtrace.xz: No such file or directory
*** Reached end of trace for Core: 0 Repeating trace: traces/.champsimtrace.xz
xz: traces/.champsimtrace.xz: No such file or directory
*** Reached end of trace for Core: 0 Repeating trace: traces/.champsimtrace.xz
xz: traces/.champsimtrace.xz: No such file or directory
*** Reached end of trace for Core: 0 Repeating trace: traces/.champsimtrace.xz
xz: traces/.champsimtrace.xz: No such file or directory
*** Reached end of trace for Core: 0 Repeating trace: traces/.champsimtrace.xz
xz: traces/.champsimtrace.xz: No such file or directory
*** Reached end of trace for Core: 0 Repeating trace: traces/.champsimtrace.xz
xz: traces/.champsimtrace.xz: No such file or directory
*** Reached end of trace for Core: 0 Repeating trace: traces/.champsimtrace.xz
xz: traces/.champsimtrace.xz: No such file or directory
*** Reached end of trace for Core: 0 Repeating trace: traces/.champsimtrace.xz
xz: traces/.champsimtrace.xz: No such file or directory
*** Reached end of trace for Core: 0 Repeating trace: traces/.champsimtrace.xz
xz: traces/.champsimtrace.xz: No such file or directory
*** Reached end of trace for Core: 0 Repeating trace: traces/.champsimtrace.xz
xz: traces/.champsimtrace.xz: No such file or directory
*** Reached end of trace for Core: 0 Repeating trace: traces/.champsimtrace.xz
xz: traces/.champsimtrace.xz: No such file or directory
*** Reached end of trace for Core: 0 Repeating trace: traces/.champsimtrace.xz
xz: traces/.champsimtrace.xz: No such file or directory
*** Reached end of trace for Core: 0 Repeating trace: traces/.champsimtrace.xz
xz: traces/.champsimtrace.xz: No such file or directory
*** Reached end of trace for Core: 0 Repeating trace: traces/.champsimtrace.xz
xz: traces/.champsimtrace.xz: No such file or directory
*** Reached end of trace for Core: 0 Repeating trace: traces/.champsimtrace.xz
xz: traces/.champsimtrace.xz: No such file or directory
*** Reached end of trace for Core: 0 Repeating trace: traces/.champsimtrace.xz
xz: traces/.champsimtrace.xz: No such file or directory
*** Reached end of trace for Core: 0 Repeating trace: traces/.champsimtrace.xz
xz: traces/.champsimtrace.xz: No such file or directory
*** Reached end of trace for Core: 0 Repeating trace: traces/.champsimtrace.xz
xz: traces/.champsimtrace.xz: No such file or directory
*** Reached end of trace for Core: 0 Repeating trace: traces/.champsimtrace.xz
xz: traces/.champsimtrace.xz: No such file or directory
*** Reached end of trace for Core: 0 Repeating trace: traces/.champsimtrace.xz
xz: traces/.champsimtrace.xz: No such file or directory
*** Reached end of trace for Core: 0 Repeating trace: traces/.champsimtrace.xz
xz: traces/.champsimtrace.xz: No such file or directory
*** Reached end of trace for Core: 0 Repeating trace: traces/.champsimtrace.xz
xz: traces/.champsimtrace.xz: No such file or directory
*** Reached end of trace for Core: 0 Repeating trace: traces/.champsimtrace.xz
xz: traces/.champsimtrace.xz: No such file or directory
*** Reached end of trace for Core: 0 Repeating trace: traces/.champsimtrace.xz
xz: traces/.champsimtrace.xz: No such file or directory
*** Reached end of trace for Core: 0 Repeating trace: traces/.champsimtrace.xz
xz: traces/.champsimtrace.xz: No such file or directory
*** Reached end of trace for Core: 0 Repeating trace: traces/.champsimtrace.xz
xz: traces/.champsimtrace.xz: No such file or directory
*** Reached end of trace for Core: 0 Repeating trace: traces/.champsimtrace.xz
xz: traces/.champsimtrace.xz: No such file or directory
*** Reached end of trace for Core: 0 Repeating trace: traces/.champsimtrace.xz
xz: traces/.champsimtrace.xz: No such file or directory
*** Reached end of trace for Core: 0 Repeating trace: traces/.champsimtrace.xz
xz: traces/.champsimtrace.xz: No such file or directory
*** Reached end of trace for Core: 0 Repeating trace: traces/.champsimtrace.xz
xz: traces/.champsimtrace.xz: No such file or directory
*** Reached end of trace for Core: 0 Repeating trace: traces/.champsimtrace.xz
xz: traces/.champsimtrace.xz: No such file or directory
*** Reached end of trace for Core: 0 Repeating trace: traces/.champsimtrace.xz
xz: traces/.champsimtrace.xz: No such file or directory
*** Reached end of trace for Core: 0 Repeating trace: traces/.champsimtrace.xz
xz: traces/.champsimtrace.xz: No such file or directory
*** Reached end of trace for Core: 0 Repeating trace: traces/.champsimtrace.xz
xz: traces/.champsimtrace.xz: No such file or directory
*** Reached end of trace for Core: 0 Repeating trace: traces/.champsimtrace.xz
xz: traces/.champsimtrace.xz: No such file or directory
*** Reached end of trace for Core: 0 Repeating trace: traces/.champsimtrace.xz
xz: traces/.champsimtrace.xz: No such file or directory
*** Reached end of trace for Core: 0 Repeating trace: traces/.champsimtrace.xz
xz: traces/.champsimtrace.xz: No such file or directory
*** Reached end of trace for Core: 0 Repeating trace: traces/.champsimtrace.xz
xz: traces/.champsimtrace.xz: No such file or directory
*** Reached end of trace for Core: 0 Repeating trace: traces/.champsimtrace.xz
xz: traces/.champsimtrace.xz: No such file or directory
*** Reached end of trace for Core: 0 Repeating trace: traces/.champsimtrace.xz
xz: traces/.champsimtrace.xz: No such file or directory
*** Reached end of trace for Core: 0 Repeating trace: traces/.champsimtrace.xz
xz: traces/.champsimtrace.xz: No such file or directory
*** Reached end of trace for Core: 0 Repeating trace: traces/.champsimtrace.xz
xz: traces/.champsimtrace.xz: No such file or directory
*** Reached end of trace for Core: 0 Repeating trace: traces/.champsimtrace.xz
xz: traces/.champsimtrace.xz: No such file or directory
*** Reached end of trace for Core: 0 Repeating trace: traces/.champsimtrace.xz
xz: traces/.champsimtrace.xz: No such file or directory
*** Reached end of trace for Core: 0 Repeating trace: traces/.champsimtrace.xz
xz: traces/.champsimtrace.xz: No such file or directory
*** Reached end of trace for Core: 0 Repeating trace: traces/.champsimtrace.xz
xz: traces/.champsimtrace.xz: No such file or directory
*** Reached end of trace for Core: 0 Repeating trace: traces/.champsimtrace.xz
xz: traces/.champsimtrace.xz: No such file or directory
*** Reached end of trace for Core: 0 Repeating trace: traces/.champsimtrace.xz
xz: traces/.champsimtrace.xz: No such file or directory
*** Reached end of trace for Core: 0 Repeating trace: traces/.champsimtrace.xz
